# created with PyMOL 2.5.2
@<TRIPOS>MOLECULE
1DFP
10 9 1                  
SMALL
USER_CHARGES
@<TRIPOS>ATOM
1	   P	-1.742	22.672	5.468	P.3	1	DFP500	0.000	
2	 O1P	-0.897	23.945	5.040	O.3	1	DFP500	0.000	
3	 O2P	-3.250	22.870	4.931	O.3	1	DFP500	0.000	
4	 O3P	-1.702	22.462	6.971	O.3	1	DFP500	0.000	
5	 C3'	-4.340	22.483	2.838	C.3	1	DFP500	0.000	
6	 C2'	-4.708	24.610	4.165	C.3	1	DFP500	0.000	
7	 C1'	-3.688	23.527	3.738	C.3	1	DFP500	0.000	
8	  C1	-0.737	25.040	5.952	C.3	1	DFP500	0.000	
9	  C2	-0.653	26.334	5.106	C.3	1	DFP500	0.000	
10	  C3	0.485	24.804	6.924	C.3	1	DFP500	0.000	
@<TRIPOS>BOND
1 1 2 1
2 1 3 1
3 1 4 1
4 3 7 1
5 5 7 1
6 6 7 1
7 2 8 1
8 8 9 1
9 8 10 1
@<TRIPOS>SUBSTRUCTURE
1	DFP500	1	GROUP	1 A	DFP
