# created with PyMOL 2.5.2
@<TRIPOS>MOLECULE
2GVV
35 36 1                 
SMALL
USER_CHARGES
@<TRIPOS>ATOM
1	 CAB	19.617	4.984	58.491	C.3	1	DI9502	0.000	
2	 CAC	19.454	4.481	59.930	C.3	1	DI9502	0.000	
3	 CAG	18.348	1.661	63.437	C.3	1	DI9502	0.000	
4	 CAH	18.444	0.158	63.705	C.3	1	DI9502	0.000	
5	 CAI	19.959	-0.001	63.819	C.3	1	DI9502	0.000	
6	 CAJ	21.062	4.656	58.103	C.3	1	DI9502	0.000	
7	 CAK	21.405	3.508	59.051	C.3	1	DI9502	0.000	
8	 CAL	20.883	4.127	60.347	C.3	1	DI9502	0.000	
9	 CAN	19.432	2.270	64.334	C.3	1	DI9502	0.000	
10	 CAO	20.221	1.074	64.874	C.3	1	DI9502	0.000	
11	 NAM	17.480	4.185	61.995	N.3	1	DI9502	0.000	
12	 OAA	16.533	2.136	60.739	O.2	1	DI9502	0.000	
13	 OAD	18.682	3.276	59.891	O.3	1	DI9502	0.000	
14	 OAF	18.716	1.920	62.079	O.3	1	DI9502	0.000	
15	 PAE	17.773	2.833	61.146	P.3	1	DI9502	0.000	
16	 H01	19.410	6.051	58.410	 H	1	DI9502	0.000	
17	 H02	18.919	4.474	57.827	 H	1	DI9502	0.000	
18	 H03	18.973	5.197	60.596	 H	1	DI9502	0.000	
19	 H04	17.348	2.055	63.621	 H	1	DI9502	0.000	
20	 H05	17.974	-0.472	62.949	 H	1	DI9502	0.000	
21	 H06	17.937	-0.121	64.629	 H	1	DI9502	0.000	
22	 H07	20.517	0.103	62.889	 H	1	DI9502	0.000	
23	 H08	20.244	-0.995	64.165	 H	1	DI9502	0.000	
24	 H09	21.739	5.506	58.187	 H	1	DI9502	0.000	
25	 H10	21.130	4.342	57.061	 H	1	DI9502	0.000	
26	 H11	22.449	3.196	59.061	 H	1	DI9502	0.000	
27	 H12	20.880	2.589	58.792	 H	1	DI9502	0.000	
28	 H13	21.470	4.968	60.718	 H	1	DI9502	0.000	
29	 H14	20.898	3.412	61.170	 H	1	DI9502	0.000	
30	 H15	19.007	2.874	65.136	 H	1	DI9502	0.000	
31	 H16	20.081	2.929	63.757	 H	1	DI9502	0.000	
32	 H17	21.280	1.285	65.024	 H	1	DI9502	0.000	
33	 H18	19.850	0.766	65.852	 H	1	DI9502	0.000	
34	 H19	18.147	4.261	62.750	 H	1	DI9502	0.000	
35	 H20	17.564	4.989	61.389	 H	1	DI9502	0.000	
@<TRIPOS>BOND
1 1 2 1
2 1 6 1
3 1 16 1
4 1 17 1
5 2 13 1
6 2 18 1
7 3 4 1
8 3 9 1
9 3 19 1
10 4 5 1
11 4 20 1
12 4 21 1
13 5 10 1
14 5 22 1
15 5 23 1
16 6 7 1
17 6 24 1
18 6 25 1
19 7 8 1
20 7 26 1
21 7 27 1
22 2 8 1
23 8 28 1
24 8 29 1
25 9 30 1
26 9 31 1
27 9 10 1
28 10 32 1
29 10 33 1
30 11 34 1
31 11 35 1
32 13 15 1
33 3 14 1
34 11 15 1
35 12 15 2
36 14 15 1
@<TRIPOS>SUBSTRUCTURE
1	DI9502	1	GROUP	1 A	DI9
